
     RDKit          3D

 12 12  0  0  0  0  0  0  0  0999 V2000
   14.0090    7.2340    1.0480 C   0  0  0  0  0  0  0  0  0  0  0  0
   13.6350    7.9160    2.3770 C   0  0  0  0  0  0  0  0  0  0  0  0
   14.6510    8.9840    2.6880 N   0  0  0  0  0  4  0  0  0  0  0  0
   12.1910    8.5000    2.3070 C   0  0  0  0  0  0  0  0  0  0  0  0
   11.1770    7.3720    2.5330 C   0  0  0  0  0  0  0  0  0  0  0  0
    9.8020    7.9260    2.1470 C   0  0  0  0  0  0  0  0  0  0  0  0
    9.3900    9.0330    3.1220 C   0  0  0  0  0  0  0  0  0  0  0  0
   10.4100   10.1890    3.1380 C   0  0  0  0  0  0  0  0  0  0  0  0
   11.8850    9.6720    3.2770 C   0  0  0  0  0  0  0  0  0  0  0  0
    7.9850    9.4820    2.8080 C   0  0  0  0  0  0  0  0  0  0  0  0
    7.5670    9.6490    1.6590 O   0  0  0  0  0  0  0  0  0  0  0  0
    7.1750    9.6680    3.9630 N   0  0  0  0  0  0  0  0  0  0  0  0
  1  2  1  0
  2  3  1  0
  2  4  1  0
  4  5  1  0
  5  6  1  0
  6  7  1  0
  7  8  1  0
  8  9  1  0
  7 10  1  0
 10 11  2  0
 10 12  1  0
  9  4  1  0
M  CHG  1   3   1
M  END
